
ELEM
N H O
END

SPECIES
N2  H2  H  O2  O  H2O  OH  OHV  H2O2  HO2  NO  NH3  NH2  NH  N  NNH  N2H4  N2H3
N2H2  H2NN  NH2OH  H2NO  HNOH  HNO  HON  NO2  HONO  HNO2  NO3  HONO2  N2O  HNO3
END

REACTIONS CAL/MOLE MOLE
H2 + M <=> 2 H + M           4.577e+19 -1.4 104400.0
H2/2.500E+00/ H2O/1.200E+01/ 
DUPLICATE
H2 + O <=> H + OH            3800000000000.0 0.0 7948.0
DUPLICATE
H2 + O <=> H + OH            880000000000000.0 0.0 19175.0
DUPLICATE
H2 + OH <=> H + H2O          220000000.0 1.51 3430.0
2 H + O2 <=> H2 + O2         8.8e+22 -1.835 800.0
DUPLICATE
2 H + O2 <=> 2 OH            4e+22 -1.835 800.0
H + O + O2 <=> OH + O2       7.35e+22 -1.835 800.0
DUPLICATE
H + OH + O2 <=> H2O + O2     2.56e+22 -1.835 800.0
2 O + M <=> O2 + M           6165000000000000.0 -0.5 0.0
H2/2.500E+00/ H2O/1.200E+01/ 
H + O2 <=> O + OH            104000000000000.0 0.0 15286.0
H + OH (+M) <=> H2O (+M)     25000000000000.0 0.234 -114.0
LOW /4.53e+21 -1.81 492.0/
TROE /0.73 1E-30 1E+30 1E+30/
H2/1.500E+00/ H2O/1.300E+01/ N2/1.000E+00/ O2/1.000E+00/
2 OH <=> H2O + O             2880000.0 1.79 -1750.0
H + O + M <=> OH + M         4.714e+18 -1.0 0.0
H2/2.500E+00/ H2O/1.200E+01/ 
DUPLICATE
H + O + M <=> OHV + M        443000000000000.0 0.0 10000.0
H2/2.000E+00/ H2O/1.200E+01/ O2/8.000E-01/
H2O + OHV <=> H2O + OH       5920000000000.0 0.5 -860.0
H2 + OHV <=> H2 + OH         2950000000000.0 0.5 -444.0
N2 + OHV <=> N2 + OH         2100000000000.0 0.5 -482.0
OH + OHV <=> 2 OH            1500000000000.0 0.5 0.0
H + OHV <=> H + OH           1500000000000.0 0.5 0.0
OHV <=> OH                   1400000.0 0.0 0.0
O2 + OHV <=> O2 + OH         2100000000000.0 0.5 -482.0
O + OHV <=> O + OH           1500000000000.0 0.5 0.0
H2O2 (+M) <=> 2 OH (+M)      2000000000000.0 0.9 48749.0
LOW /2.3530181e+24 -2.2929358 48743.405000000006/
TROE /0.43 1E-30 1E+30/
H2/3.700E+00/ H2O/5.100E+00/ H2O2/5.200E+00/ N2/1.500E+00/ O2/7.900E-01/
H + H2O2 <=> H2O + OH        24100000000000.0 0.0 3970.0
H + H2O2 <=> H2 + HO2        5020000.0 2.07 4300.0
H2O2 + O <=> HO2 + OH        9550000.0 2.0 3970.0
H2O2 + OH <=> H2O + HO2      1740000000000.0 0.0 318.0
DUPLICATE
H2O2 + OH <=> H2O + HO2      75900000000000.0 0.0 7269.0
DUPLICATE
H + HO2 <=> H2 + O2          2800000.0 2.09 -1451.0
H + HO2 <=> 2 OH             70790000000000.0 0.0 295.0
HO2 + O <=> O2 + OH          32500000000000.0 0.0 0.0
HO2 + OH <=> H2O + O2        1.93e+20 -2.49 584.24
DUPLICATE
HO2 + OH <=> H2O + O2        1210000000.0 1.24 -1307.58
DUPLICATE
2 HO2 <=> H2O2 + O2          12140000000.0 0.422 -1480.52
DUPLICATE
2 HO2 <=> H2O2 + O2          1.688e+16 -0.681 12931.66
DUPLICATE
H + O2 (+M) <=> HO2 (+M)     4660000000000.0 0.44 0.0
LOW /1.225e+19 -1.2 0.0/
TROE /0.5 1 1E+10/
H2/1.350E+00/ H2O/1.660E+01/ O2/9.000E-01/
H + NH3 <=> H2 + NH2         640000.0 2.39 10171.0
NH3 + O <=> NH2 + OH         9400000.0 1.94 6460.0
HO2 + NH3 <=> H2O2 + NH2     300000000000.0 0.0 22000.0
H2 + NH <=> H + NH2          21000000000000.0 0.0 15417.0
NH2 + O <=> H + HNO          660000000000000.0 -0.5 0.0
NH2 + O <=> NH + OH          7000000000000.0 0.0 0.0
DUPLICATE
NH2 + O <=> NH + OH          0.86 4.01 1673.0
DUPLICATE
NH2 + OH <=> H2O + NH        3300000.0 1.949 -217.0
HO2 + NH2 <=> H2O + HNO      16000000.0 0.55 525.0
DUPLICATE
HO2 + NH2 <=> H2O + HNO      5700000000000000.0 -1.12 707.0
DUPLICATE
HO2 + NH2 <=> H2O + HON      21000000.0 0.64 811.0
NH2 + O2 <=> H2NO + O        260000000000.0 0.4872 29050.0
NH2 + O2 <=> HNO + OH        0.029 3.764 18185.0
2 NH2 <=> NH + NH3           5.6 3.53 552.0
NH + NH2 <=> N + NH3         9600.0 2.46 107.0
N + NH2 <=> 2 H + N2         70000000000000.0 0.0 0.0
HNO + NH2 <=> NH3 + NO       590.0 2.95 -3469.0
HONO + NH2 <=> NH3 + NO2     71.0 3.02 -4940.0
NH2 + NO2 <=> H2NO + NO      860000000000.0 0.11 -1186.0
NH2 + NO2 <=> H2O + N2O      220000000000.0 0.11 -1186.0
H + NH <=> H2 + N            30000000000000.0 0.0 0.0
NH + O <=> H + NO            92000000000000.0 0.0 0.0
NH + OH <=> H + HNO          320000000000000.0 -0.376 -46.0
NH + OH <=> H2O + N          16000000.0 1.733 -576.0
NH + O2 <=> HNO + O          24000000000000.0 0.0 13850.0
NH + O2 <=> NO + OH          99000000000.0 0.0 1530.0
2 NH <=> N + NH2             0.57 3.88 342.0
N + NH <=> H + N2            30000000000000.0 0.0 0.0
NH + NO <=> H + N2O          2700000000000000.0 -0.78 20.0
NH + NO <=> N2 + OH          680000000000000.0 -0.78 20.0
HONO + NH <=> NH2 + NO2      10000000000000.0 0.0 0.0
NH + NO2 <=> N2O + OH        4100000000000.0 0.0 0.0
NH + NO2 <=> HNO + NO        5900000000000.0 0.0 0.0
N + OH <=> H + NO            38000000000000.0 0.0 0.0
N + O2 <=> NO + O            9030000000.0 1.0 6498.0
N + NO <=> N2 + O            11280000000000.0 0.14 0.0
NNH <=> H + N2               1000000000.0 0.0 0.0
H + NNH <=> H2 + N2          100000000000000.0 0.0 0.0
NNH + O <=> H + N2O          190000000000000.0 -0.274 -22.0
NNH + O <=> N2 + OH          12000000000000.0 0.145 -217.0
NNH + O <=> NH + NO          520000000000.0 0.381 -409.0
NNH + OH <=> H2O + N2        50000000000000.0 0.0 0.0
NNH + O2 <=> HO2 + N2        560000000000000.0 -0.385 -13.0
NH + NNH <=> N2 + NH2        50000000000000.0 0.0 0.0
NH2 + NNH <=> N2 + NH3       50000000000000.0 0.0 0.0
NNH + NO <=> HNO + N2        50000000000000.0 0.0 0.0
NH2OH (+M) <=> NH2 + OH (+M) 1.4e+20 -1.31 64080.0
LOW /5.4e+37 -5.96 66783.0/
TROE /0.31 1E-30 1E+30 1E+30/
H + NH2OH <=> H2 + HNOH      480000000.0 1.5 6249.0
H + NH2OH <=> H2 + H2NO      240000000.0 1.5 5067.0
NH2OH + O <=> HNOH + OH      330000000.0 1.5 3864.9999999999995
NH2OH + O <=> H2NO + OH      170000000.0 1.5 3010.0
NH2OH + OH <=> H2O + HNOH    15000.0 2.61 -3537.0
NH2OH + OH <=> H2NO + H2O    150000.0 2.28 -1296.0
NH2 + NH2OH <=> HNOH + NH3   0.11 4.0 -97.0
NH2 + NH2OH <=> H2NO + NH3   9.5 3.42 -1013.0
NH + NH2OH <=> HNOH + NH2    0.0029000000000000002 4.4 1564.0
NH + NH2OH <=> H2NO + NH2    0.0015 4.6 2424.0
HO2 + NH2OH <=> H2O2 + HNOH  29000.0 2.69 9557.0
HO2 + NH2OH <=> H2NO + H2O2  14000.0 2.69 6418.0
H2NO + M <=> H + HNO + M     2.8e+24 -2.83 64915.0
H2O/1.000E+01/
H2NO + M <=> HNOH + M        1.1e+29 -4.0 44000.0
H2O/1.000E+01/
H + H2NO <=> H2 + HNO        30000000.0 2.0 2000.0
H + H2NO <=> NH2 + OH        50000000000000.0 0.0 0.0
H2NO + O <=> HNO + OH        30000000.0 2.0 2000.0
H2NO + OH <=> H2O + HNO      100000000000000.0 0.0 0.0
H2NO + HO2 <=> H2O2 + HNO    29000.0 2.69 -1600.0
H2NO + NH2 <=> HNO + NH3     3000000000000.0 0.0 1000.0
H2NO + NO <=> 2 HNO          20000.0 2.0 13000.0
H2NO + NO2 <=> HNO + HONO    44000.0 2.64 4040.0
HNOH + M <=> H + HNO + M     2e+24 -2.84 58934.0
H2O/1.000E+01/
H + HNOH <=> NH2 + OH        40000000000000.0 0.0 0.0
H + HNOH <=> H2 + HNO        480000000.0 1.5 378.0
HNOH + O <=> HNO + OH        70000000000000.0 0.0 0.0
DUPLICATE
HNOH + O <=> HNO + OH        330000000.0 1.5 -358.0
DUPLICATE
HNOH + OH <=> H2O + HNO      2400000.0 2.0 -1192.0
HNOH + HO2 <=> H2O2 + HNO    29000.0 2.69 -1600.0
HNOH + HO2 <=> NH2OH + O2    29000.0 2.69 -1600.0
HNOH + O2 <=> HNO + HO2      3000000000000.0 0.0 25000.0
HNOH + NH2 <=> HNO + NH3     1800000.0 1.94 -1152.0
HNOH + NO2 <=> HNO + HONO    600000000000.0 0.0 2000.0
H + HNO <=> H2 + NO          66000000000.0 0.94 495.0
HNO + O <=> NO + OH          23000000000000.0 0.0 0.0
HNO + HO2 <=> HNO2 + OH      2000.0 2.36 8980.0
2 HNO <=> H2O + N2O          900000000.0 0.0 3100.0
HO2 + NO <=> NO2 + OH        2100000000000.0 0.0 -497.0
NO + O (+M) <=> NO2 (+M)     1300000000000000.0 -0.75 0.0
LOW /9.44e+24 -2.87 1551.0/
TROE /0.962 10 7962/
H2O/1.000E+01/ N2O/4.400E+00/ NO/1.800E+00/ NO2/6.200E+00/ O2/8.000E-01/
NO2 + O <=> NO + O2          5860000000000.0 0.0 -238.0
HO2 + NO2 <=> HONO + O2      1.9 3.32 3044.0
HO2 + NO2 <=> HNO2 + O2      19.0 3.26 4983.0
2 NO2 <=> 2 NO + O2          4500000000000.0 0.0 27599.0
2 NO2 <=> NO + NO3           9600000000.0 0.73 20900.0
HONO + O <=> NO2 + OH        12000000000000.0 0.0 5960.0
HONO + OH <=> H2O + NO2      1700000000000.0 0.0 -520.0
HONO + NO2 <=> HONO2 + NO    200000000000.0 0.0 32700.0
2 HONO <=> H2O + NO + NO2    0.35 3.64 12140.0
HNO2 + O <=> NO2 + OH        170000000.0 1.5 2000.0
HNO2 + OH <=> H2O + NO2      40000000000000.0 0.0 0.0
NO2 + O (+M) <=> NO3 (+M)    3500000000000.0 0.24 0.0
LOW /2.5e+20 -1.5 0.0/
TROE /0.71 1E-30 1700 1E+30/
H + NO3 <=> NO2 + OH         60000000000000.0 0.0 0.0
NO3 + O <=> NO2 + O2         10000000000000.0 0.0 0.0
NO3 + OH <=> HO2 + NO2       14000000000000.0 0.0 0.0
HO2 + NO3 <=> NO2 + O2 + OH  1500000000000.0 0.0 0.0
NO3 + NO2 <=> NO + O2 + NO2  50000000000.0 0.0 2940.0
NO2 + OH (+M) <=> HONO2 (+M) 16300000000000.0 0.0 0.0
LOW /3.13e+25 -3.0 0.0/
TROE /0.41 1E-30 1E+30 1E+30/
H + HONO2 <=> H2 + NO3       560000000.0 1.5 16400.0
H + HONO2 <=> H2O + NO2      61.0 3.3 6285.0
H + HONO2 <=> HONO + OH      380000.0 2.3 6976.0
HONO2 + OH <=> H2O + NO3     10000000000.0 0.0 -1240.0
HO2 + NO + M <=> HNO3 + M    1.5e+24 -3.5 2200.0
H + HNO3 <=> H2 + NO3        556000000.0 1.5 16400.0
H + HNO3 <=> H2O + NO2       60.8 3.3 6285.0
H + HNO3 <=> HONO + OH       382000.0 2.3 6976.0
HNO3 + OH <=> H2O + NO3      10300000000.0 0.0 -1240.0
HON + M <=> H + NO + M       5.1e+19 -1.73 16045.0
H2O/7.000E+00/
H + HON <=> H + HNO          24000000000000.0 0.0 0.0
H + HON <=> NH + OH          10000000000000.0 0.0 0.0
HON + O <=> NO + OH          70000000000000.0 0.0 0.0
HON + OH <=> H + HONO        40000000000000.0 0.0 0.0
HON + O2 <=> NO2 + OH        1000000000000.0 0.0 4968.0
N2O (+M) <=> N2 + O (+M)     169000000000.0 0.0 57653.0
LOW /720000000000000.0 0.0 57410.0/
H2O/1.200E+01/ N2/1.700E+00/ N2O/3.500E+00/ NO/3.000E+00/ O2/1.400E+00/
H + N2O <=> N2 + OH          64000000.0 1.835 13492.0
H + N2O <=> N2 + OHV         160000000000000.0 0.0 50300.0
N2O + O <=> N2 + O2          3690000000000.0 0.0 15936.0
N2O + O <=> 2 NO             91500000000000.0 0.0 27679.0
N2O + OH <=> HO2 + N2        0.013 4.72 36560.0
N2O + OH <=> HNO + NO        0.00011999999999999999 4.33 25080.0
N2O + NO <=> N2 + NO2        530000.0 2.23 46281.0
2 NH2 <=> H2 + N2H2          170000000.0 1.62 11783.0
2 NH2 <=> H2 + H2NN          72000.0 1.88 8802.0
NH + NH2 <=> H + N2H2        430000000000000.0 -0.272 -77.0
HNOH + NH2 <=> N2H3 + OH     10.0 3.46 -467.0
HNOH + NH2 <=> H2NN + H2O    8.8e+16 -1.08 1113.0
2 NH2 (+M) <=> N2H4 (+M)     560000000000000.0 -0.414 66.0
LOW /1.6e+34 -5.49 1987.0/
TROE /0.31 1E-30 1E+30 1E+30/
N2H4 <=> H2 + H2NN           140000000000000.0 0.0 74911.0
H + N2H4 <=> H2 + N2H3       7000000000000.0 0.0 2500.0
H + N2H4 <=> NH2 + NH3       230000.0 1.42 8202.0
N2H4 + O <=> N2H3 + OH       150000000000.0 0.0 -1270.0
N2H4 + O <=> H2O + N2H2      290000000000.0 0.0 -1270.0
N2H4 + OH <=> H2O + N2H3     13000000000000.0 0.0 -318.0
N2H4 + NH2 <=> N2H3 + NH3    0.76 4.0 4048.0
N2H4 + NO <=> HNO + N2H3     60.0 3.16 30845.0
N2H4 + NO2 <=> HONO + N2H3   82.0 3.13 8860.0
N2H4 + NO2 <=> HNO2 + N2H3   0.024 4.14 7946.0
H + N2H3 <=> H2 + N2H2       240000000.0 1.5 -10.0
N2H3 + O <=> N2H2 + OH       170000000.0 1.5 -646.0
N2H3 + O <=> HNO + NH2       30000000000000.0 0.0 0.0
N2H3 + O => H + NH2 + NO     30000000000000.0 0.0 0.0
N2H3 + OH <=> H2O + N2H2     1200000.0 2.0 -1192.0
N2H3 + OH <=> H2NN + H2O     30000000000000.0 0.0 0.0
N2H3 + OH <=> HNO + NH3      1000000000000.0 0.0 15000.0
HO2 + N2H3 <=> H2O2 + N2H2   14000.0 2.69 -1600.0
HO2 + N2H3 <=> N2H4 + O2     920000.0 1.94 2126.0
N2H3 + NH2 <=> N2H2 + NH3    920000.0 1.94 -1152.0
N2H3 + NH2 <=> H2NN + NH3    30000000000000.0 0.0 0.0
N2H3 + NH <=> N2H2 + NH2     20000000000000.0 0.0 0.0
H + N2H2 <=> H2 + NNH        110000000000000.0 0.0 3128.0
N2H2 + O <=> NNH + OH        330000000.0 1.5 497.0
N2H2 + O <=> NH2 + NO        10000000000000.0 0.0 0.0
N2H2 + OH <=> H2O + NNH      59.0 3.4 1360.0
N2H2 + NH2 <=> NH3 + NNH     0.088 4.05 1610.0
N2H2 + NH <=> NH2 + NNH      2400000.0 2.0 -1192.0
N2H2 + NO <=> N2O + NH2      4000000000000.0 0.0 11922.0
H2NN <=> H + NNH             3.4e+26 -4.83 46228.0
H2NN <=> H2 + N2             250000000000000.0 0.0 52785.0
H2NN <=> N2H2                130000000000000.0 0.0 46931.0
H + H2NN <=> H2 + NNH        480000000.0 1.5 -894.0
H + H2NN <=> H + N2H2        70000000000000.0 0.0 0.0
H2NN + O <=> NNH + OH        330000000.0 1.5 -894.0
H2NN + O <=> NH2 + NO        70000000000000.0 0.0 0.0
H2NN + OH <=> H2O + NNH      2400000.0 2.0 -1192.0
H2NN + OH => H + NH2 + NO    2000000000000.0 0.0 0.0
H2NN + HO2 => NH2 + NO + OH  9000000000000.0 0.0 0.0
H2NN + HO2 <=> H2O2 + NNH    29000.0 2.69 -1600.0
H2NN + O2 <=> NH2 + NO2      1500000000000.0 0.0 5961.0
H2NN + NH2 <=> NH3 + NNH     1800000.0 1.94 -1152.0
HNO2 <=> HONO                4.68e+24 -4.52 43320.0 
!PLOG /0.010000000000000004 3.26e+34 -7.97 45490.00000000001/
!PLOG /0.10000000000000005 2.77e+33 -7.58 45250.0/
!PLOG /0.31599999999999984 1.93e+32 -7.18 44940.0/
!PLOG /0.9999999999999999 1.56e+30 -6.47 44360.0/
!PLOG /3.160000000000002 2.17e+27 -5.49 43670.0/
!PLOG /9.999999999999991 4.68e+24 -4.52 43320.0/
!PLOG /31.599999999999994 1.14e+23 -3.81 43640.0/
!PLOG /99.99999999999986 2.03e+22 -3.35 44430.0/
H + NO2 <=> NO + OH          101000000000.0 0.84 -1058.0
NO + OH <=> HONO             6.35e+23 -3.97 2222.0 
!PLOG /0.010000000000000004 5.02e+21 -4.24 898.9/
!PLOG /0.10000000000000005 5.31e+22 -4.24 1184.0/
!PLOG /0.31599999999999984 1.38e+23 -4.22 1376.0/
!PLOG /0.9999999999999999 3.09e+23 -4.17 1621.0/
!PLOG /3.160000000000002 5.45e+23 -4.09 1911.0/
!PLOG /9.999999999999991 6.35e+23 -3.97 2222.0/
!PLOG /31.599999999999994 3.68e+23 -3.75 2501.0/
!PLOG /99.99999999999986 7.29e+22 -3.41 2660.0/
NO + OH <=> HNO2             2.04e+17 -2.49 5125.0
!PLOG /0.010000000000000004 3.16e+18 -3.74 1405.0/
!PLOG /0.10000000000000005 3.03e+18 -3.43 2618.0/
!PLOG /0.31599999999999984 2.23e+18 -3.24 3248.0/
!PLOG /0.9999999999999999 1.43e+18 -3.03 3899.0/
!PLOG /3.160000000000002 6.91e+17 -2.79 4535.0/
!PLOG /9.999999999999991 2.04e+17 -2.49 5125.0/
!PLOG /31.599999999999994 3.07e+16 -2.12 5648.0/
!PLOG /99.99999999999986 1950000000000000.0 -1.64 6099.0/
H + HONO <=> H2 + NO2        1890.0 2.83 1422.7
H + HNO2 <=> H2 + NO2        23300.0 2.77 -2021.8999999999999
H + HONO <=> H2O + NO        26000000000.0 0.76 4736.0
!PLOG /0.010000000000000004 3910000000.0 0.99 4049.0/
!PLOG /0.10000000000000005 3930000000.0 0.99 4049.0/
!PLOG /0.31599999999999984 3970000000.0 0.99 4051.0/
!PLOG /0.9999999999999999 4300000000.0 0.98 4070.0/
!PLOG /3.160000000000002 7040000000.0 0.92 4225.0/
!PLOG /9.999999999999991 26000000000.0 0.76 4736.0/
!PLOG /31.599999999999994 79100000000.0 0.64 5519.0/
!PLOG /99.99999999999986 27900000000.0 0.8 6146.0/
HNO + OH <=> H + HONO        9670.0 2.49 5253.0
!PLOG /0.010000000000000004 1060.0 2.76 4439.0/
!PLOG /0.10000000000000005 1090.0 2.75 4450.0/
!PLOG /0.31599999999999984 1180.0 2.74 4476.0/
!PLOG /0.9999999999999999 1480.0 2.72 4554.0/
!PLOG /3.160000000000002 2710.0 2.64 4768.0/
!PLOG /9.999999999999991 9670.0 2.49 5253.0/
!PLOG /31.599999999999994 53100.0 2.29 6063.0/
!PLOG /99.99999999999986 103000.0 2.24 6951.0/
HNO + OH <=> H2O + NO        260000000000.0 0.23 4413.0
!PLOG /0.010000000000000004 58200000000.0 0.4 3762.0/
!PLOG /0.10000000000000005 58500000000.0 0.4 3763.0/
!PLOG /0.31599999999999984 59200000000.0 0.4 3764.0/
!PLOG /0.9999999999999999 63000000000.0 0.39 3782.0/
!PLOG /3.160000000000002 95300000000.0 0.34 3931.0/
!PLOG /9.999999999999991 260000000000.0 0.23 4413.0/
!PLOG /31.599999999999994 383000000000.0 0.2 5099.0/
!PLOG /99.99999999999986 41800000000.0 0.51 5532.0/
H2 + N2O <=> H2O + N2        7000000000000.0 0.0 32500.0
NH3 + OH <=> H2O + NH2       4299.0 2.83021 -430.8
H + HNO2 <=> H2O + NO        3400000000.0 1.07 5546.0
!PLOG /0.010000000000000004 3390000000.0 1.07 5568.0/
!PLOG /0.10000000000000005 3390000000.0 1.07 5567.0/
!PLOG /0.31599999999999984 3390000000.0 1.07 5567.0/
!PLOG /0.9999999999999999 3380000000.0 1.07 5565.0/
!PLOG /3.160000000000002 3380000000.0 1.07 5560.0/
!PLOG /9.999999999999991 3400000000.0 1.07 5546.0/
!PLOG /31.599999999999994 4320000000.0 1.04 5591.0/
!PLOG /99.99999999999986 12700000000.0 0.91 5968.0/
H + HNO2 <=> HNO + OH        41400000.0 1.76 5617.0
!PLOG /0.010000000000000004 36100000.0 1.78 5565.0/
!PLOG /0.10000000000000005 36100000.0 1.78 5566.0/
!PLOG /0.31599999999999984 36200000.0 1.78 5567.0/
!PLOG /0.9999999999999999 36500000.0 1.78 5570.0/
!PLOG /3.160000000000002 37400000.0 1.77 5580.0/
!PLOG /9.999999999999991 41400000.0 1.76 5617.0/
!PLOG /31.599999999999994 62300000.0 1.71 5770.0/
!PLOG /99.99999999999986 181000000.0 1.59 6233.0/
H + NH2 (+M) <=> NH3 (+M)    160000000000000.0 0.0 0.0
LOW /3.6e+22 -1.76 0.0/
TROE /0.5 1E-30 1E+30 1E+30/
H + NO (+M) <=> HNO (+M)     1520000000000000.0 -0.41 0.0
LOW /240000000000000.0 0.206 -1550.0/
TROE /0.82 1E-30 1E+30 1E+30/
H2/2.000E+00/ H2O/1.000E+01/ N2/1.600E+00/ O2/1.500E+00/
HO2 + NH2 <=> H2NO + OH      2.5e+17 -1.28 1166.0
NH2 + NO <=> H2O + N2        2.6e+19 -2.369 870.0
NH2 + NO <=> NNH + OH        43000000000.0 0.294 -866.0
H2NO + O2 <=> HNO + HO2      230.0 2.994 16500.0
HO2 + NH2 <=> NH3 + O2       17000.0 1.55 2027.0
N2H2 <=> H + NNH             3.1e+41 -8.42 76102.0
!PLOG /0.10000000000000005 5.6e+36 -7.75 70340.0/
!PLOG /0.9999999999999999 1.8e+40 -8.41 73320.0/
!PLOG /9.999999999999991 3.1e+41 -8.42 76102.0/
HNO + NO2 <=> HONO + NO      784.6999999999999 3.059 3882.4
HNO + O2 <=> HO2 + NO        398956.0 2.3026 14605.4
N2H3 <=> H + N2H2            1.8e+45 -9.39 70141.0
!PLOG /0.10000000000000005 2.3e+43 -9.55 64468.0/
!PLOG /0.9999999999999999 3.6e+47 -10.38 69009.0/
!PLOG /9.999999999999991 1.8e+45 -9.39 70141.0/
END
