THERMO ALL
300.      1000.     5000.
POSF10325         S07/15C  11H  22    0    0G   298.000  3000.000              1
 0.21357891E+02 0.66589087E-01-0.25967469E-04 0.44775001E-08-0.23607152E-12    2
-0.45796996E+05-0.86136086E+02 0.25785518E+01 0.72624832E-01 0.73236370E-04    3
-0.15115444E-06 0.68935579E-10-0.38029855E+05 0.22533735E+02                   4
C2H4              L 1/91C   2H   4   00   00G   200.000  3500.000  1000.000    1
 2.03611116E+00 1.46454151E-02-6.71077915E-06 1.47222923E-09-1.25706061E-13    2
 4.93988614E+03 1.03053693E+01 3.95920148E+00-7.57052247E-03 5.70990292E-05    3
-6.91588753E-08 2.69884373E-11 5.08977593E+03 4.09733096E+00 1.05186890E+04    4
CH4               L 8/88C   1H   4   00   00G   200.000  3500.000  1000.000    1
 7.48514950E-02 1.33909467E-02-5.73285809E-06 1.22292535E-09-1.01815230E-13    2
-9.46834459E+03 1.84373180E+01 5.14987613E+00-1.36709788E-02 4.91800599E-05    3
-4.84743026E-08 1.66693956E-11-1.02466476E+04-4.64130376E+00 1.00161980E+04    4
C3H6              120186C   3H   6          G   300.00   5000.00  1000.00      1
 0.06732257E+02 0.01490834E+00-0.04949899E-04 0.07212022E-08-0.03766204E-12    2
-0.09235703E+04-0.01331335E+03 0.01493307E+02 0.02092518E+00 0.04486794E-04    3
-0.01668912E-06 0.07158146E-10 0.01074826E+05 0.01614534E+03                   4
iC4H8             T 6/83H   8C   4    0    0G   300.000  5000.0                1
 0.44609470E+01 0.29611487E-01-0.13077129E-04 0.26571934E-08-0.20134713E-12    2
-0.50066758E+04 0.10671549E+01 0.26471405E+01 0.25902957E-01 0.81985354E-05    3
-0.22193259E-07 0.88958580E-11-0.40373069E+04 0.12676388E+02                   4
C4H81             T 6/83C   4H   8    0    0G   300.000  5000.000              1
 0.20535841E+01 0.34350507E-01-0.15883197E-04 0.33089662E-08-0.25361045E-12    2
-0.21397231E+04 0.15543201E+02 0.11811380E+01 0.30853380E-01 0.50865247E-05    3
-0.24654888E-07 0.11110193E-10-0.17904004E+04 0.21062469E+02                   4
H2                TPIS78H   2   00   00   00G   200.000  3500.000   1000.00    1
 3.33727920E+00-4.94024731E-05 4.99456778E-07-1.79566394E-10 2.00255376E-14    2
-9.50158922E+02-3.20502331E+00 2.34433112E+00 7.98052075E-03-1.94781510E-05    3
 2.01572094E-08-7.37611761E-12-9.17935173E+02 6.83010238E-01 8.46810200E+03    4
C2H6              L 8/88C   2H   6   00   00G   200.000  3500.000  1000.000    1
 1.07188150E+00 2.16852677E-02-1.00256067E-05 2.21412001E-09-1.90002890E-13    2
-1.14263932E+04 1.51156107E+01 4.29142492E+00-5.50154270E-03 5.99438288E-05    3
-7.08466285E-08 2.68685771E-11-1.15222055E+04 2.66682316E+00 1.18915940E+04    4
CO                TPIS79C   1O   1   00   00G   200.000  3500.000  1000.000    1
 2.71518561E+00 2.06252743E-03-9.98825771E-07 2.30053008E-10-2.03647716E-14    2
-1.41518724E+04 7.81868772E+00 3.57953347E+00-6.10353680E-04 1.01681433E-06    3
 9.07005884E-10-9.04424499E-13-1.43440860E+04 3.50840928E+00 8.67100000E+03    4
C6H6              D11/99C   6H   6    0    0G   300.000  3000.000              1
 0.91381245E+01 0.23854433E-01-0.88127726E-05 0.12099021E-08-0.18221503E-13    2
 0.52043462E+04-0.29115665E+02-0.48437734E+01 0.58427613E-01-0.29485855E-04    3
-0.69390440E-08 0.82125253E-11 0.91817773E+04 0.43889832E+02                   4
C2H2              L 1/91C   2H   2   00   00G   200.000  3500.000  1000.000    1
 4.14756964E+00 5.96166664E-03-2.37294852E-06 4.67412171E-10-3.61235213E-14    2
 2.59359992E+04-1.23028121E+00 8.08681094E-01 2.33615629E-02-3.55171815E-05    3
 2.80152437E-08-8.50072974E-12 2.64289807E+04 1.39397051E+01 1.00058390E+04    4
C6H5CH3           L 6/87C   7H   8    0    0G   200.000  6000.000              1
 0.12940034E+02 0.26691287E-01-0.96838505E-05 0.15738629E-08-0.94663601E-13    2
-0.69764908E+03-0.46728785E+02 0.16152663E+01 0.21099438E-01 0.85366018E-04    3
-0.13261066E-06 0.55956604E-10 0.40756300E+04 0.20282210E+02 0.60135835E+04    4
CH3               L11/89C   1H   3   00   00G   200.000  3500.000  1000.000    1
 2.28571772E+00 7.23990037E-03-2.98714348E-06 5.95684644E-10-4.67154394E-14    2
 1.67755843E+04 8.48007179E+00 3.67359040E+00 2.01095175E-03 5.73021856E-06    3
-6.87117425E-09 2.54385734E-12 1.64449988E+04 1.60456433E+00 1.03663400E+04    4
O2                TPIS89O   2   00   00   00G   200.000  3500.000  1000.000    1
 3.28253784E+00 1.48308754E-03-7.57966669E-07 2.09470555E-10-2.16717794E-14    2
-1.08845772E+03 5.45323129E+00 3.78245636E+00-2.99673416E-03 9.84730201E-06    3
-9.68129509E-09 3.24372837E-12-1.06394356E+03 3.65767573E+00 8.68010400E+03    4
H                 L 7/88H   1   00   00   00G   200.000  3500.000   1000.00    1
 2.50000001E+00-2.30842973E-11 1.61561948E-14-4.73515235E-18 4.98197357E-22    2
 2.54736599E+04-4.46682914E-01 2.50000000E+00 7.05332819E-13-1.99591964E-15    3
 2.30081632E-18-9.27732332E-22 2.54736599E+04-4.46682853E-01 6.19742800E+03    4
OH                S 9/01O   1H   1    0    0G   200.000  6000.000   1000.00    1
 2.86472886E+00 1.05650448E-03-2.59082758E-07 3.05218674E-11-1.33195876E-15    2
 3.71885774E+03 5.70164073E+00 4.12530561E+00-3.22544939E-03 6.52764691E-06    3
-5.79853643E-09 2.06237379E-12 3.38153812E+03-6.90432960E-01 4.51532273E+03    4
HO2               L 5/89H   1O   2   00   00G   200.000  3500.000  1000.000    1
 4.01721090E+00 2.23982013E-03-6.33658150E-07 1.14246370E-10-1.07908535E-14    2
 1.11856713E+02 3.78510215E+00 4.30179801E+00-4.74912051E-03 2.11582891E-05    3
-2.42763894E-08 9.29225124E-12 2.94808040E+02 3.71666245E+00 1.00021620E+04    4
O                 L 1/90O   1   00   00   00G   200.000  3500.000  1000.000    1
 2.56942078E+00-8.59741137E-05 4.19484589E-08-1.00177799E-11 1.22833691E-15    2
 2.92175791E+04 4.78433864E+00 3.16826710E+00-3.27931884E-03 6.64306396E-06    3
-6.12806624E-09 2.11265971E-12 2.91222592E+04 2.05193346E+00 6.72540300E+03    4
H2O               L 8/89H   2O   1   00   00G   200.000  3500.000  1000.000    1
 3.03399249E+00 2.17691804E-03-1.64072518E-07-9.70419870E-11 1.68200992E-14    2
-3.00042971E+04 4.96677010E+00 4.19864056E+00-2.03643410E-03 6.52040211E-06    3
-5.48797062E-09 1.77197817E-12-3.02937267E+04-8.49032208E-01 9.90409200E+03    4
H2O2              L 7/88H   2O   2   00   00G   200.000  3500.000  1000.000    1
 4.16500285E+00 4.90831694E-03-1.90139225E-06 3.71185986E-10-2.87908305E-14    2
-1.78617877E+04 2.91615662E+00 4.27611269E+00-5.42822417E-04 1.67335701E-05    3
-2.15770813E-08 8.62454363E-12-1.77025821E+04 3.43505074E+00 1.11588350E+04    4
CH2               L S/93C   1H   2   00   00G   200.000  3500.000  1000.000    1
 2.87410113E+00 3.65639292E-03-1.40894597E-06 2.60179549E-10-1.87727567E-14    2
 4.62636040E+04 6.17119324E+00 3.76267867E+00 9.68872143E-04 2.79489841E-06    3
-3.85091153E-09 1.68741719E-12 4.60040401E+04 1.56253185E+00 1.00274170E+04    4
CH2*              L S/93C   1H   2   00   00G   200.000  3500.000  1000.000    1
 2.29203842E+00 4.65588637E-03-2.01191947E-06 4.17906000E-10-3.39716365E-14    2
 5.09259997E+04 8.62650169E+00 4.19860411E+00-2.36661419E-03 8.23296220E-06    3
-6.68815981E-09 1.94314737E-12 5.04968163E+04-7.69118967E-01 9.93967200E+03    4
HCO               L12/89H   1C   1O   1   00G   200.000  3500.000  1000.000    1
 2.77217438E+00 4.95695526E-03-2.48445613E-06 5.89161778E-10-5.33508711E-14    2
 4.01191815E+03 9.79834492E+00 4.22118584E+00-3.24392532E-03 1.37799446E-05    3
-1.33144093E-08 4.33768865E-12 3.83956496E+03 3.39437243E+00 9.98945000E+03    4
CH2O              L 8/88H   2C   1O   1   00G   200.000  3500.000  1000.000    1
 1.76069008E+00 9.20000082E-03-4.42258813E-06 1.00641212E-09-8.83855640E-14    2
-1.39958323E+04 1.36563230E+01 4.79372315E+00-9.90833369E-03 3.73220008E-05    3
-3.79285261E-08 1.31772652E-11-1.43089567E+04 6.02812900E-01 1.00197170E+04    4
CH3O              IU1/03C   1H   3O   1     G   200.000  6000.00               1
 4.75779238E+00 7.44142474E-03-2.69705176E-06 4.38090504E-10-2.63537098E-14    2
 3.78111940E+02-1.96680028E+00 3.71180502E+00-2.80463306E-03 3.76550971E-05    3
-4.73072089E-08 1.86588420E-11 1.29569760E+03 6.57240864E+00 2.52571660E+03    4
CO2               L 7/88C   1O   2   00   00G   200.000  3500.000  1000.000    1
 3.85746029E+00 4.41437026E-03-2.21481404E-06 5.23490188E-10-4.72084164E-14    2
-4.87591660E+04 2.27163806E+00 2.35677352E+00 8.98459677E-03-7.12356269E-06    3
 2.45919022E-09-1.43699548E-13-4.83719697E+04 9.90105222E+00 9.36546900E+03    4
C2H3              L 2/92C   2H   3   00   00G   200.000  3500.000  1000.000    1
 3.01672400E+00 1.03302292E-02-4.68082349E-06 1.01763288E-09-8.62607041E-14    2
 3.46128739E+04 7.78732378E+00 3.21246645E+00 1.51479162E-03 2.59209412E-05    3
-3.57657847E-08 1.47150873E-11 3.48598468E+04 8.51054025E+00 1.05750490E+04    4
C2H5              L12/92C   2H   5   00   00G   200.000  3500.000  1000.000    1
 1.95465642E+00 1.73972722E-02-7.98206668E-06 1.75217689E-09-1.49641576E-13    2
 1.28575200E+04 1.34624343E+01 4.30646568E+00-4.18658892E-03 4.97142807E-05    3
-5.99126606E-08 2.30509004E-11 1.28416265E+04 4.70720924E+00 1.21852440E+04    4
HCCO              SRIC91H   1C   2O   1     G  0300.00   4000.00  1000.00      1
 0.56282058E+01 0.40853401E-02-0.15934547E-05 0.28626052E-09-0.19407832E-13    2
 0.19327215E+05-0.39302595E+01 0.22517214E+01 0.17655021E-01-0.23729101E-04    3
 0.17275759E-07-0.50664811E-11 0.20059449E+05 0.12490417E+02                   4
CH2CO             D05/90C   2H   2O   1   00G   200.000  3500.000  1000.000    1
 4.51129732E+00 9.00359745E-03-4.16939635E-06 9.23345882E-10-7.94838201E-14    2
-7.77850000E+03 6.32247205E-01 2.13583630E+00 1.81188721E-02-1.73947474E-05    3
 9.34397568E-09-2.01457615E-12-7.27000000E+03 1.22156480E+01 1.17977430E+04    4
CH2CHO            D05/83O   1H   3C   2    0G   300.000  5000.000              1
 0.59756699E+01 0.81305914E-02-0.27436245E-05 0.40703041E-09-0.21760171E-13    2
-0.96950000E+03-0.50320879E+01 0.34090624E+01 0.10738574E-01 0.18914925E-05    3
-0.71585831E-08 0.28673851E-11 0.62000000E+02 0.95714535E+01 0.30474436E+04    4
aC3H5             PD5/98C   3H   5    0    0G   300.000  3000.000              1
 0.65007877E+01 0.14324731E-01-0.56781632E-05 0.11080801E-08-0.90363887E-13    2
 0.17482449E+05-0.11243050E+02 0.13631835E+01 0.19813821E-01 0.12497060E-04    3
-0.33355555E-07 0.15846571E-10 0.19245629E+05 0.17173214E+02                   4
nC3H7             P11/94C   3H   7    0    0G   300.000  3000.000              1
 0.77097479E+01 0.16031485E-01-0.52720238E-05 0.75888352E-09-0.38862719E-13    2
 0.79762236E+04-0.15515297E+02 0.10491173E+01 0.26008973E-01 0.23542516E-05    3
-0.19595132E-07 0.93720207E-11 0.10312346E+05 0.21136034E+02                   4
cC4H5             PUPM3 C   4H   5    0    0G   300.000  3000.000              1
 0.67467155E+01 0.17283000E-01-0.65168579E-05 0.98917574E-09-0.34604908E-13    2
 0.32808359E+05-0.12912880E+02-0.26397593E+01 0.41549157E-01-0.21920954E-04    3
-0.46559014E-08 0.61348890E-11 0.35373828E+05 0.35701797E+02                   4
C5H4O             T 8/99C   5H   4O   1    0G   200.000  6000.000              1
 1.00806824E+01 1.61143465E-02-5.83314509E-06 9.46759320E-10-5.68972206E-14    2
 1.94364771E+03-2.94521623E+01 2.64576497E-01 3.34873827E-02 1.67738470E-06    3
-2.96207455E-08 1.54431476E-11 5.11159287E+03 2.35409513E+01 6.64245999E+03    4
C5H5              T12/89C   5H 5      0    0G   300.00   2000.000 1000.00      1
 0.74743938E+01 0.16012733E-01-0.64823148E-08-0.35819703E-08 0.92365071E-12    2
 2.80860000E+04-0.16133000E+02 0.98349822E+00 0.33651476E-01-0.11054181E-06    3
-0.36743394E-07 0.23141184E-10 2.96260000E+04 0.16585519E+02                   4
C6H5              D11/99C   6H   5    0    0G   300.000  3000.000              1
 0.85973110E+01 0.22241630E-01-0.87199978E-05 0.13788785E-08-0.53146056E-13    2
 0.36261047E+05-0.22954643E+02-0.36931453E+01 0.52178968E-01-0.25558427E-04    3
-0.70661121E-08 0.75833975E-11 0.39779590E+05 0.41332535E+02                   4
C6H5CH2           T08/90C   7H   7    0    0G   200.000  6000.000              1
 0.14043980E+02 0.23493873E-01-0.85375367E-05 0.13890841E-08-0.83614420E-13    2
 0.18564203E+05-0.51665589E+02 0.48111540E+00 0.38512832E-01 0.32861492E-04    3
-0.76972721E-07 0.35423068E-10 0.23307027E+05 0.23548820E+02 0.25317186E+05    4
C6H5O             T05/02C   6H   5O   1    0G   200.000  6000.000 1000.000     1
 1.37221720E+01 1.74688771E-02-6.35504520E-06 1.03492308E-09-6.23410504E-14    2
 2.87274751E+02-4.88181680E+01-4.66204455E-01 4.13443975E-02 1.32412991E-05    3
-5.72872769E-08 2.89763707E-11 4.77858391E+03 2.76990274E+01 6.49467016E+03    4
C6H5CO    EST/BUR P 1/93C   7H   5O   1    0G   300.000  2500.000              1
 0.13374409E+02 0.23999289E-01-0.10465724E-04 0.21669131E-08-0.18007045E-12    2
 0.69147837E+04-0.44659218E+02-0.20251155E+01 0.61512541E-01-0.31603653E-04    3
-0.69724599E-08 0.79835149E-11 0.11255803E+05 0.35778175E+02                   4
C6H5CHO           L 3/86C   7H   6O   1    0G   298.150  5000.000 1000.00      1
 0.13650737E+02 0.25680419E-01-0.10466729E-04 0.19413430E-08-0.13483792E-12    2
-0.11019744E+05-0.47965796E+02-0.31627334E+01 0.66369245E-01-0.34816353E-04    3
-0.62999377E-08 0.85807101E-11-0.61169349E+04 0.40231735E+02-0.44259974E+04    4
A2C11H21          S05/17C  11H  21    0    0G   298.000  3000.000              1
 0.22263090E+02 0.60628705E-01-0.22088430E-04 0.32747258E-08-0.93033979E-13    2
-0.22578441E+05-0.86938538E+02 0.43744922E+01 0.59199378E-01 0.92999122E-04    3
-0.16477171E-06 0.72183745E-10-0.14781490E+05 0.18463387E+02                   4
A2C11H21O2        S05/17C  11H  21O   2    0G   298.000  3000.000              1
 0.26321770E+02 0.62167339E-01-0.21951682E-04 0.29497935E-08-0.34120920E-13    2
-0.40162664E+05-0.10340025E+03 0.85454130E+01 0.50456300E-01 0.13274181E-03    3
-0.21930680E-06 0.97016326E-10-0.31941262E+05 0.35816956E+01                   4
A2C11H20OOH       S05/17C  11H  21O   2    0G   298.000  3000.000              1
 0.30819830E+02 0.53434685E-01-0.15733494E-04 0.91941138E-09 0.21397707E-12    2
-0.35536723E+05-0.12570448E+03 0.72365251E+01 0.60358044E-01 0.10941162E-03    3
-0.19359219E-06 0.86240369E-10-0.25707555E+05 0.11037926E+02                   4
A2C11H20          S05/17C  11H  20    0    0G   298.000  3000.000              1
 0.24124388E+02 0.53534620E-01-0.16772357E-04 0.14540301E-08 0.13607544E-12    2
-0.31069160E+05-0.98911896E+02 0.21327138E+01 0.70764884E-01 0.66020177E-04    3
-0.14045189E-06 0.64010838E-10-0.22588648E+05 0.25707947E+02                   4
A2C11H21O4        S05/17C  11H  21O   4    0G   298.000  3000.000              1
 0.34051502E+02 0.59816882E-01-0.20786432E-04 0.26122657E-08 0.64876638E-14    2
-0.55172227E+05-0.13957135E+03 0.10316822E+02 0.59106752E-01 0.13682547E-03    3
-0.23753239E-06 0.10698401E-09-0.44979180E+05-0.40995789E+00                   4
A2C11H20O3        S05/17C  11H  20O   3    0G   298.000  3000.000              1
 0.29325695E+02 0.62247474E-01-0.24105871E-04 0.39759618E-08-0.17737362E-12    2
-0.69597203E+05-0.11881973E+03 0.74335537E+01 0.63986771E-01 0.11428907E-03    3
-0.20943479E-06 0.94991223E-10-0.60387426E+05 0.88138046E+01                   4
N2                121286N   2               G  0300.00   5000.00  1000.00      1
 0.02926640E+02 0.14879768E-02-0.05684760E-05 0.10097038E-09-0.06753351E-13    2
-0.09227977E+04 0.05980528E+02 0.03298677E+02 0.14082404E-02-0.03963222E-04    3
 0.05641515E-07-0.02444854E-10-0.10208999E+04 0.03950372E+02                   4
END
