ELEMENTS
H  O  N  
END

SPECIES
H2                O2                H                 O                 OH                HO2               H2O               H2O2              
NO                NH3               NH2               NH                N                 NNH               N2H4              N2H3              
N2H2              H2NN              NH2OH             H2NO              HNOH              HNO               HON               NO2               
HONO              HNO2              NO3               HONO2             N2O               N2                
END

REACTIONS
H+O2<=>O+OH                              1.000e+14    0.000  15286.00
O+H2<=>OH+H                              3.800e+12    0.000   7948.00
     DUPLICATE
O+H2<=>OH+H                              8.800e+14    0.000  19175.00
     DUPLICATE
OH+H2<=>H+H2O                            2.200e+08    1.510   3430.00
2OH<=>O+H2O                              2.000e+07    1.651   631.00
     DUPLICATE
2OH<=>O+H2O                              2.600e+11   -0.057   -827.00
     DUPLICATE
H2+M<=>2H+M                              4.600e+19   -1.400 104380.00
H2/2.50/ H2O/12.00/ 
H+O+M<=>OH+M                             4.700e+18   -1.000      0.00
H2/2.50/ H2O/12.00/ 
2O+M<=>O2+M                              1.900e+13    0.000  -1788.00
H2/2.50/ H2O/12.00/ 
H2O+M<=>H+OH+M                           6.100e+27   -3.322 120790.00
H2/3.00/ O2/1.50/ H2O/0.00/ N2/2.00/ 
2H2O<=>H+OH+H2O                          1.000e+26   -2.440 120180.00
H+O2(+M)<=>HO2(+M)                       4.700e+12    0.440      0.00
H2/2.00/ O2/0.78/ H2O/14.00/ 
     LOW  /  6.366e+20   -1.720    524.80 /
!     FCCHECK/     0.5     1e-30    0.5     1e+30      0         0
     TROE/     0.5    1e-30     1e+30        /
HO2+H<=>H2+O2                            2.800e+06    2.090  -1451.00
HO2+H<=>2OH                              7.100e+13    0.000    295.00
HO2+H<=>H2O+O                            1.400e+12    0.000      0.00
HO2+O<=>O2+OH                            2.900e+10    1.000   -724.00
HO2+OH<=>H2O+O2                          1.900e+20   -2.490    584.00
     DUPLICATE
HO2+OH<=>H2O+O2                          1.200e+09    1.240  -1310.00
     DUPLICATE
2HO2<=>H2O2+O2                           1.200e+09    0.771  -1825.00
     DUPLICATE
2HO2<=>H2O2+O2                           1.300e+12    0.295   7397.00
     DUPLICATE
H2O2(+M)<=>2OH(+M)                       2.000e+12    0.900  48749.00
H2/3.70/ O2/1.20/ H2O/7.50/ H2O2/7.70/ N2/1.50/ 
     LOW  /  2.500e+24   -2.300  48749.00 /
!     FCCHECK/    0.57     1e-30   0.43     1e+30      0         0
     TROE/    0.43    1e-30     1e+30        /
H2O2+H<=>H2O+OH                          2.400e+13    0.000   3970.00
H2O2+H<=>HO2+H2                          4.800e+13    0.000   7950.00
H2O2+O<=>HO2+OH                          9.600e+06    2.000   3970.00
H2O2+OH<=>HO2+H2O                        1.700e+12    0.000    318.00
     DUPLICATE
H2O2+OH<=>HO2+H2O                        7.600e+13    0.000   7270.00
     DUPLICATE
NH2+H(+M)<=>NH3(+M)                      1.600e+14    0.000      0.00

     LOW  /  3.600e+22   -1.760      0.00 /
     TROE/     0.5    1e-30     1e+30     1e+30 /
NH3+H<=>NH2+H2                           6.400e+05    2.390  10171.00
NH3+O<=>NH2+OH                           9.400e+06    1.940   6460.00
NH3+OH<=>NH2+H2O                         2.000e+06    2.040    566.00
NH3+HO2<=>NH2+H2O2                       3.000e+11    0.000  22000.00
NH+H2<=>NH2+H                            2.100e+13    0.000  15417.00
NH2+O<=>HNO+H                            6.600e+14   -0.500      0.00
NH2+O<=>NH+OH                            7.000e+12    0.000      0.00
     DUPLICATE
NH2+O<=>NH+OH                            8.600e-01    4.010   1673.00
     DUPLICATE
NH2+OH<=>NH+H2O                          3.300e+06    1.949   -217.00
NH2+HO2<=>NH3+O2                         1.700e+04    1.550   2027.00
NH2+HO2<=>H2NO+OH                        2.500e+17   -1.280   1166.00
NH2+HO2<=>HNO+H2O                        1.600e+07    0.550    525.00
     DUPLICATE
NH2+HO2<=>HNO+H2O                        5.700e+15   -1.120    707.00
     DUPLICATE
NH2+HO2<=>HON+H2O                        2.100e+07    0.640    811.00
NH2+O2<=>H2NO+O                          2.600e+11    0.487  29050.00
NH2+O2<=>HNO+OH                          2.900e-02    3.764  18185.00
2NH2<=>NH3+NH                            5.600e+00    3.530    552.00
NH2+NH<=>NH3+N                           9.600e+03    2.460    107.00
NH2+N<=>N2+2H                            7.000e+13    0.000      0.00
NH2+HNO<=>NH3+NO                         5.900e+02    2.950  -3469.00
NH2+NO<=>N2+H2O                          2.600e+19   -2.369    870.00
NH2+NO<=>NNH+OH                          4.300e+10    0.294   -866.00
NH2+HONO<=>NH3+NO2                       7.100e+01    3.020  -4940.00
NH2+NO2<=>H2NO+NO                        8.600e+11    0.110  -1186.00
NH2+NO2<=>N2O+H2O                        2.200e+11    0.110  -1186.00
NH+H<=>N+H2                              3.000e+13    0.000      0.00
NH+O<=>NO+H                              9.200e+13    0.000      0.00
NH+OH<=>HNO+H                            3.200e+14   -0.376    -46.00
NH+OH<=>N+H2O                            1.600e+07    1.733   -576.00
NH+O2<=>HNO+O                            2.400e+13    0.000  13850.00
NH+O2<=>NO+OH                            9.900e+10    0.000   1530.00
2NH<=>NH2+N                              5.700e-01    3.880    342.00
NH+N<=>N2+H                              3.000e+13    0.000      0.00
NH+NO<=>N2O+H                            2.700e+15   -0.780     20.00
NH+NO<=>N2+OH                            6.800e+14   -0.780     20.00
NH+HONO<=>NH2+NO2                        1.000e+13    0.000      0.00
NH+NO2<=>N2O+OH                          4.100e+12    0.000      0.00
NH+NO2<=>HNO+NO                          5.900e+12    0.000      0.00
N+OH<=>NO+H                              3.800e+13    0.000      0.00
N+O2<=>NO+O                              5.900e+09    1.000   6280.00
N+NO<=>N2+O                              9.400e+12    0.140      0.00
NNH<=>N2+H                               1.000e+09    0.000      0.00
NNH+H<=>N2+H2                            1.000e+14    0.000      0.00
NNH+O<=>N2O+H                            1.900e+14   -0.274    -22.00
NNH+O<=>N2+OH                            1.200e+13    0.145   -217.00
NNH+O<=>NH+NO                            5.200e+11    0.381   -409.00
NNH+OH<=>N2+H2O                          5.000e+13    0.000      0.00
NNH+O2<=>N2+HO2                          5.600e+14   -0.385    -13.00
NNH+NH<=>N2+NH2                          5.000e+13    0.000      0.00
NNH+NH2<=>N2+NH3                         5.000e+13    0.000      0.00
NNH+NO<=>N2+HNO                          5.000e+13    0.000      0.00
NH2OH(+M)<=>NH2+OH(+M)                   1.400e+20   -1.310  64080.00

     LOW  /  5.400e+37   -5.960  66783.00 /
     TROE/    0.31    1e-30     1e+30     1e+30 /
NH2OH+H<=>HNOH+H2                        4.800e+08    1.500   6249.00
NH2OH+H<=>H2NO+H2                        2.400e+08    1.500   5067.00
NH2OH+O<=>HNOH+OH                        3.300e+08    1.500   3865.00
NH2OH+O<=>H2NO+OH                        1.700e+08    1.500   3010.00
NH2OH+OH<=>HNOH+H2O                      1.500e+04    2.610  -3537.00
NH2OH+OH<=>H2NO+H2O                      1.500e+05    2.280  -1296.00
NH2OH+NH2<=>HNOH+NH3                     1.100e-01    4.000    -97.00
NH2OH+NH2<=>H2NO+NH3                     9.500e+00    3.420  -1013.00
NH2OH+NH<=>HNOH+NH2                      2.900e-03    4.400   1564.00
NH2OH+NH<=>H2NO+NH2                      1.500e-03    4.600   2424.00
NH2OH+HO2<=>HNOH+H2O2                    2.900e+04    2.690   9557.00
NH2OH+HO2<=>H2NO+H2O2                    1.400e+04    2.690   6418.00
H2NO+M<=>HNO+H+M                         2.800e+24   -2.830  64915.00
H2O/10.00/ 
H2NO+M<=>HNOH+M                          1.100e+29   -4.000  44000.00
H2O/10.00/ 
H2NO+H<=>HNO+H2                          3.000e+07    2.000   2000.00
H2NO+H<=>NH2+OH                          5.000e+13    0.000      0.00
H2NO+O<=>HNO+OH                          3.000e+07    2.000   2000.00
H2NO+OH<=>HNO+H2O                        1.000e+14    0.000      0.00
H2NO+HO2<=>HNO+H2O2                      2.900e+04    2.690  -1600.00
H2NO+O2<=>HNO+HO2                        2.300e+02    2.994  16500.00
H2NO+NH2<=>HNO+NH3                       3.000e+12    0.000   1000.00
H2NO+NO<=>2HNO                           2.000e+04    2.000  13000.00
H2NO+NO2<=>HONO+HNO                      4.400e+04    2.640   4040.00
HNOH+M<=>HNO+H+M                         2.000e+24   -2.840  58934.00
H2O/10.00/ 
HNOH+H<=>NH2+OH                          4.000e+13    0.000      0.00
HNOH+H<=>HNO+H2                          4.800e+08    1.500    378.00
HNOH+O<=>HNO+OH                          7.000e+13    0.000      0.00
     DUPLICATE
HNOH+O<=>HNO+OH                          3.300e+08    1.500   -358.00
     DUPLICATE
HNOH+OH<=>HNO+H2O                        2.400e+06    2.000  -1192.00
HNOH+HO2<=>HNO+H2O2                      2.900e+04    2.690  -1600.00
HNOH+HO2<=>NH2OH+O2                      2.900e+04    2.690  -1600.00
HNOH+O2<=>HNO+HO2                        3.000e+12    0.000  25000.00
HNOH+NH2<=>NH3+HNO                       1.800e+06    1.940  -1152.00
HNOH+NO2<=>HONO+HNO                      6.000e+11    0.000   2000.00
NO+H(+M)<=>HNO(+M)                       1.500e+15   -0.410      0.00
N2/1.60/ 
     LOW  /  2.400e+14    0.206  -1550.00 /
     TROE/    0.82    1e-30     1e+30     1e+30 /
HNO+H<=>NO+H2                            6.600e+10    0.940    495.00
HNO+O<=>NO+OH                            2.300e+13    0.000      0.00
HNO+OH<=>NO+H2O                          1.200e+09    1.189    334.00
HNO+HO2<=>HNO2+OH                        2.000e+03    2.360   8980.00
HNO+O2<=>HO2+NO                          2.000e+13    0.000  16000.00
2HNO<=>N2O+H2O                           9.000e+08    0.000   3100.00
HNO+NO2<=>HONO+NO                        4.400e+04    2.640   4040.00
NO+HO2<=>NO2+OH                          2.100e+12    0.000   -497.00
NO+O(+M)<=>NO2(+M)                       1.300e+15   -0.750      0.00

     LOW  /  4.720e+24   -2.870   1550.00 /
     TROE/    0.75     1000    100000     1e+30 /
NO2+H<=>NO+OH                            1.300e+14    0.000    362.00
NO2+O<=>NO+O2                            1.100e+14   -0.520      0.00
NO2+HO2<=>HONO+O2                        1.900e+00    3.320   3044.00
NO2+HO2<=>HNO2+O2                        1.900e+01    3.260   4983.00
2NO2<=>2NO+O2                            4.500e+12    0.000  27599.00
2NO2<=>NO3+NO                            9.600e+09    0.730  20900.00
NO+OH(+M)<=>HONO(+M)                     1.100e+14   -0.300      0.00

     LOW  /  3.392e+23   -2.500      0.00 /
     TROE/    0.75    1e-30     1e+30     1e+30 /
NO2+H2<=>HONO+H                          1.800e+01    3.510  26300.00
     DUPLICATE
NO2+H2<=>HONO+H                          2.400e+01    3.620  35800.00
     DUPLICATE
HONO+H<=>HNO+OH                          5.600e+10    0.860   5000.00
HONO+H<=>NO+H2O                          8.100e+06    1.890   3850.00
HONO+O<=>NO2+OH                          1.200e+13    0.000   5960.00
HONO+OH<=>NO2+H2O                        1.700e+12    0.000   -520.00
HONO+NO2<=>HONO2+NO                      2.000e+11    0.000  32700.00
2HONO<=>NO+NO2+H2O                       3.500e-01    3.640  12140.00
HNO2(+M)<=>HONO(+M)                      2.500e+14    0.000  32300.00

     LOW  /  3.100e+18    0.000  31500.00 /
     TROE/   1.149    1e-30      3125     1e+30 /
NO2+H2<=>HNO2+H                          2.400e+02    3.150  31100.00
HNO2+O<=>NO2+OH                          1.700e+08    1.500   2000.00
HNO2+OH<=>NO2+H2O                        4.000e+13    0.000      0.00
NO2+O(+M)<=>NO3(+M)                      3.500e+12    0.240      0.00

     LOW  /  2.500e+20   -1.500      0.00 /
     TROE/    0.71    1e-30      1700     1e+30 /
NO3+H<=>NO2+OH                           6.000e+13    0.000      0.00
NO3+O<=>NO2+O2                           1.000e+13    0.000      0.00
NO3+OH<=>NO2+HO2                         1.400e+13    0.000      0.00
NO3+HO2<=>NO2+O2+OH                      1.500e+12    0.000      0.00
NO3+NO2<=>NO+NO2+O2                      5.000e+10    0.000   2940.00
NO2+OH(+M)<=>HONO2(+M)                   3.000e+13    0.000      0.00

     LOW  /  2.938e+25   -3.000      0.00 /
     TROE/     0.4    1e-30     1e+30     1e+30 /
HONO2+H<=>H2+NO3                         5.600e+08    1.500  16400.00
HONO2+H<=>H2O+NO2                        6.100e+01    3.300   6285.00
HONO2+H<=>OH+HONO                        3.800e+05    2.300   6976.00
HONO2+OH<=>H2O+NO3                       1.000e+10    0.000  -1240.00
N2O(+M)<=>N2+O(+M)                       9.900e+10    0.000  57901.00
O2/1.40/ H2O/12.00/ N2/1.70/ 
     LOW  /  6.000e+14    0.000  57444.00 /
     TROE/       1        1     1e+07     1e+07 /
N2O+H<=>N2+OH                            6.400e+07    1.835  13492.00
N2O+O<=>2NO                              9.200e+13    0.000  27679.00
N2O+O<=>N2+O2                            9.200e+13    0.000  27679.00
N2O+OH<=>N2+HO2                          1.300e-02    4.720  36560.00
N2O+OH<=>HNO+NO                          1.200e-04    4.330  25080.00
N2O+NO<=>NO2+N2                          5.300e+05    2.230  46280.00
2NH2<=>N2H2+H2                           1.700e+08    1.620  11783.00
2NH2<=>H2NN+H2                           7.200e+04    1.880   8802.00
NH2+NH<=>N2H2+H                          4.300e+14   -0.272    -77.00
HNOH+NH2<=>N2H3+OH                       1.000e+01    3.460   -467.00
HNOH+NH2<=>H2NN+H2O                      8.800e+16   -1.080   1113.00
2NH2(+M)<=>N2H4(+M)                      5.600e+14   -0.414     66.00

     LOW  /  1.600e+34   -5.490   1987.00 /
     TROE/    0.31    1e-30     1e+30     1e+30 /
N2H4<=>H2NN+H2                           1.400e+14    0.000  74911.00
N2H4+H<=>N2H3+H2                         7.000e+12    0.000   2500.00
N2H4+H<=>NH3+NH2                         2.300e+05    1.420   8202.00
N2H4+O<=>N2H3+OH                         1.500e+11    0.000  -1270.00
N2H4+O<=>N2H2+H2O                        2.900e+11    0.000  -1270.00
N2H4+OH<=>N2H3+H2O                       1.300e+13    0.000   -318.00
N2H4+NH2<=>N2H3+NH3                      7.600e-01    4.000   4048.00
N2H4+NO<=>N2H3+HNO                       6.000e+01    3.160  30845.00
N2H4+NO2<=>N2H3+HONO                     8.200e+01    3.130   8860.00
N2H4+NO2<=>N2H3+HNO2                     2.400e-02    4.140   7946.00
N2H2+H<=>N2H3                            1.300e+14    0.000   3871.00
N2H3+H<=>N2H2+H2                         2.400e+08    1.500    -10.00
N2H3+O<=>N2H2+OH                         1.700e+08    1.500   -646.00
N2H3+O<=>NH2+HNO                         3.000e+13    0.000      0.00
N2H3+O=>NH2+NO+H                         3.000e+13    0.000      0.00
N2H3+OH<=>N2H2+H2O                       1.200e+06    2.000  -1192.00
N2H3+OH<=>H2NN+H2O                       3.000e+13    0.000      0.00
N2H3+OH<=>NH3+HNO                        1.000e+12    0.000  15000.00
N2H3+HO2<=>N2H2+H2O2                     1.400e+04    2.690  -1600.00
N2H3+HO2<=>N2H4+O2                       9.200e+05    1.940   2126.00
N2H3+NH2<=>N2H2+NH3                      9.200e+05    1.940  -1152.00
N2H3+NH2<=>H2NN+NH3                      3.000e+13    0.000      0.00
N2H3+NH<=>N2H2+NH2                       2.000e+13    0.000      0.00
N2H2+M<=>NNH+H+M                         1.900e+27   -3.050  66107.00
H2O/7.00/ 
N2H2+H<=>NNH+H2                          1.100e+14    0.000   3128.00
N2H2+O<=>NNH+OH                          3.300e+08    1.500    497.00
N2H2+O<=>NH2+NO                          1.000e+13    0.000      0.00
N2H2+OH<=>NNH+H2O                        5.900e+01    3.400   1360.00
N2H2+NH2<=>NNH+NH3                       8.800e-02    4.050   1610.00
N2H2+NH<=>NNH+NH2                        2.400e+06    2.000  -1192.00
N2H2+NO<=>N2O+NH2                        4.000e+12    0.000  11922.00
H2NN<=>NNH+H                             3.400e+26   -4.830  46228.00
H2NN<=>N2+H2                             2.500e+14    0.000  52785.00
H2NN<=>N2H2                              1.300e+14    0.000  46931.00
H2NN+H<=>NNH+H2                          4.800e+08    1.500   -894.00
H2NN+H<=>N2H2+H                          7.000e+13    0.000      0.00
H2NN+O<=>NNH+OH                          3.300e+08    1.500   -894.00
H2NN+O<=>NH2+NO                          7.000e+13    0.000      0.00
H2NN+OH<=>NNH+H2O                        2.400e+06    2.000  -1192.00
H2NN+OH=>NH2+NO+H                        2.000e+12    0.000      0.00
H2NN+HO2=>NH2+NO+OH                      9.000e+12    0.000      0.00
H2NN+HO2<=>NNH+H2O2                      2.900e+04    2.690  -1600.00
H2NN+O2<=>NH2+NO2                        1.500e+12    0.000   5961.00
H2NN+NH2<=>NNH+NH3                       1.800e+06    1.940  -1152.00
END
